Version 4
SHEET 1 2488 1072
WIRE 496 -320 496 -384
WIRE 496 -320 448 -320
WIRE 336 -304 160 -304
WIRE 384 -304 336 -304
WIRE 784 -304 704 -304
WIRE 480 -288 448 -288
WIRE 496 -288 480 -288
WIRE 608 -288 576 -288
WIRE 640 -288 608 -288
WIRE 720 -272 704 -272
WIRE 608 -224 608 -288
WIRE 720 -224 720 -272
WIRE 720 -224 608 -224
WIRE 336 -208 336 -304
WIRE 368 -208 336 -208
WIRE 480 -208 480 -288
WIRE 480 -208 448 -208
WIRE 672 -32 608 -32
WIRE 784 -32 784 -304
WIRE 784 -32 752 -32
WIRE 816 -32 784 -32
WIRE 960 -32 896 -32
WIRE 1648 80 1616 80
WIRE 1792 80 1728 80
WIRE 112 96 48 96
WIRE 208 96 192 96
WIRE 304 96 208 96
WIRE 432 96 304 96
WIRE 608 112 608 -32
WIRE 656 112 608 112
WIRE 960 112 960 -32
WIRE 960 112 912 112
WIRE 208 160 208 96
WIRE 304 160 304 96
WIRE 432 176 432 96
WIRE 656 176 432 176
WIRE 960 176 912 176
WIRE 1680 224 1680 176
WIRE 656 240 432 240
WIRE 1120 240 912 240
WIRE 1264 240 1184 240
WIRE 1488 240 1264 240
WIRE 1616 240 1616 80
WIRE 1616 240 1568 240
WIRE 1648 240 1616 240
WIRE 1792 256 1792 80
WIRE 1792 256 1712 256
WIRE 1952 256 1792 256
WIRE 2064 256 2032 256
WIRE 2304 256 2064 256
WIRE 208 272 208 224
WIRE 256 272 208 272
WIRE 304 272 304 224
WIRE 304 272 256 272
WIRE 1264 272 1264 240
WIRE 1648 272 1616 272
WIRE 256 288 256 272
WIRE 2064 288 2064 256
WIRE 656 304 608 304
WIRE 960 304 912 304
WIRE 112 320 48 320
WIRE 208 320 192 320
WIRE 304 320 208 320
WIRE 432 320 432 240
WIRE 432 320 304 320
WIRE 1616 320 1616 272
WIRE 1680 320 1680 288
WIRE 208 384 208 320
WIRE 304 384 304 320
WIRE 608 400 608 304
WIRE 960 400 960 304
WIRE 208 496 208 448
WIRE 256 496 208 496
WIRE 304 496 304 448
WIRE 304 496 256 496
WIRE 256 512 256 496
FLAG 960 400 0
FLAG 1616 320 0
FLAG 1264 352 0
FLAG 2064 352 0
FLAG 496 -384 0
FLAG 256 512 0
FLAG 256 288 0
SYMBOL res 208 80 R90
WINDOW 0 0 56 VBottom 2
WINDOW 3 32 56 VTop 2
SYMATTR InstName R1
SYMATTR Value 10 kOhm
SYMBOL diode 192 160 R0
WINDOW 3 -32 61 Left 2
SYMATTR InstName D1
SYMATTR Value NTE586
SYMBOL diode 320 224 R180
WINDOW 0 24 64 Left 2
WINDOW 3 -22 2 Left 2
SYMATTR InstName D2
SYMATTR Value NTE586
SYMBOL res 208 304 R90
WINDOW 0 0 56 VBottom 2
WINDOW 3 32 56 VTop 2
SYMATTR InstName R2
SYMATTR Value 10 kOhm
SYMBOL diode 192 384 R0
WINDOW 3 -32 61 Left 2
SYMATTR InstName D3
SYMATTR Value NTE586
SYMBOL diode 320 448 R180
WINDOW 0 24 64 Left 2
WINDOW 3 -22 2 Left 2
SYMATTR InstName D4
SYMATTR Value NTE586
SYMBOL Opamps\\LT1920 784 208 R0
SYMATTR InstName U1
SYMBOL res 768 -48 R90
WINDOW 0 0 56 VBottom 2
WINDOW 3 32 56 VTop 2
SYMATTR InstName R3
SYMATTR Value 1 kOhm
SYMBOL res 912 -48 R90
WINDOW 0 0 56 VBottom 2
WINDOW 3 32 56 VTop 2
SYMATTR InstName R4
SYMATTR Value 1 kOhm
SYMBOL cap 1184 224 R90
WINDOW 0 0 32 VBottom 2
WINDOW 3 32 32 VTop 2
SYMATTR InstName C1
SYMATTR Value 1 uF
SYMBOL res 1248 256 R0
SYMATTR InstName R5
SYMATTR Value 1 MOhm
SYMBOL Opamps\\OP07 1680 192 R0
SYMATTR InstName .
SYMBOL res 1744 64 R90
WINDOW 0 0 56 VBottom 2
WINDOW 3 32 56 VTop 2
SYMATTR InstName R6
SYMATTR Value 1 MOhm
SYMBOL res 1584 224 R90
WINDOW 0 0 56 VBottom 2
WINDOW 3 32 56 VTop 2
SYMATTR InstName R7
SYMATTR Value 10 kOhm
SYMBOL res 2048 240 R90
WINDOW 0 0 56 VBottom 2
WINDOW 3 32 56 VTop 2
SYMATTR InstName R8
SYMATTR Value 2 kOhm
SYMBOL cap 2048 288 R0
SYMATTR InstName C2
SYMATTR Value 1 uF
SYMBOL Opamps\\OP07 672 -224 R180
WINDOW 0 30 118 Left 2
SYMATTR InstName G=1
SYMBOL Opamps\\OP07 416 -240 R180
WINDOW 0 22 122 Left 2
SYMATTR InstName G=3
SYMBOL res 592 -304 R90
WINDOW 0 81 53 VBottom 2
WINDOW 3 32 56 VTop 2
SYMATTR InstName R9
SYMATTR Value 1 kOhm
SYMBOL res 464 -224 R90
WINDOW 0 81 58 VBottom 2
WINDOW 3 32 56 VTop 2
SYMATTR InstName R10
SYMATTR Value 3 kOhm
TEXT 8 112 Left 1 ;To Electrode
TEXT 8 336 Left 1 ;To Electrode
TEXT 600 416 Left 1 ;-5V
TEXT 968 176 Left 1 ;+5V
TEXT 752 384 Left 2 ;G = 26
TEXT 1160 392 Left 2 ;fc = 0.16 Hz
TEXT 1136 424 Left 2 ;High Pass Filter
TEXT 1680 168 Left 1 ;+5V
TEXT 1680 328 Left 1 ;-5V
TEXT 1640 424 Left 2 ;Amplifier
TEXT 1632 392 Left 2 ;Gain = 100
TEXT 1952 424 Left 2 ;Low Pass Filter
TEXT 1992 392 Left 2 ;fc = 80
TEXT 2200 232 Left 2 ;Output to Microcontroller
TEXT 56 -272 Left 2 ;To Reference Electrode
